<?xml version="1.0" encoding="UTF-8"?>

<!-- generated on 04/14/20 12:54:48 by Eclipse SUMO netedit Version 1.5.0
<configuration xmlns:xsi="http://www.w3.org/2001/XMLSchema-instance" xsi:noNamespaceSchemaLocation="http://sumo.dlr.de/xsd/netconvertConfiguration.xsd">

    <input>
        <sumo-net-file value="GCDnew.net.xml"/>
    </input>

    <output>
        <output-file value="GCDnew.net.xml"/>
    </output>

    <processing>
        <geometry.min-radius.fix.railways value="false"/>
        <geometry.max-grade.fix value="false"/>
        <offset.disable-normalization value="true"/>
        <lefthand value="true"/>
    </processing>

    <junctions>
        <no-turnarounds value="true"/>
        <junctions.corner-detail value="5"/>
        <junctions.limit-turn-speed value="5.5"/>
        <rectangular-lane-cut value="false"/>
    </junctions>

    <pedestrian>
        <walkingareas value="false"/>
    </pedestrian>

    <report>
        <aggregate-warnings value="5"/>
    </report>

</configuration>
-->

<net version="1.3" junctionCornerDetail="5" lefthand="true" limitTurnSpeed="5.50" xmlns:xsi="http://www.w3.org/2001/XMLSchema-instance" xsi:noNamespaceSchemaLocation="http://sumo.dlr.de/xsd/net_file.xsd">

    <location netOffset="-683125.94,-5913001.60" convBoundary="302.41,439.17,1495.52,1822.04" origBoundary="-6.248697,53.334343,-6.221759,53.355270" projParameter="+proj=utm +zone=29 +ellps=WGS84 +datum=WGS84 +units=m +no_defs"/>

    <type id="highway.bridleway" priority="1" numLanes="1" speed="2.78" allow="pedestrian" oneway="1" width="2.00"/>
    <type id="highway.bus_guideway" priority="1" numLanes="1" speed="27.78" allow="bus" oneway="1"/>
    <type id="highway.cycleway" priority="1" numLanes="1" speed="8.33" allow="bicycle" oneway="0" width="1.00"/>
    <type id="highway.footway" priority="1" numLanes="1" speed="2.78" allow="pedestrian" oneway="1" width="2.00"/>
    <type id="highway.ford" priority="1" numLanes="1" speed="2.78" allow="army" oneway="0"/>
    <type id="highway.living_street" priority="2" numLanes="1" speed="2.78" disallow="tram rail_urban rail rail_electric rail_fast ship" oneway="0"/>
    <type id="highway.motorway" priority="14" numLanes="2" speed="39.44" allow="private emergency authority army vip passenger hov taxi bus coach delivery truck trailer motorcycle evehicle custom1 custom2" oneway="1"/>
    <type id="highway.motorway_link" priority="9" numLanes="1" speed="22.22" allow="private emergency authority army vip passenger hov taxi bus coach delivery truck trailer motorcycle evehicle custom1 custom2" oneway="1"/>
    <type id="highway.path" priority="1" numLanes="1" speed="2.78" allow="pedestrian bicycle" oneway="1" width="2.00"/>
    <type id="highway.pedestrian" priority="1" numLanes="1" speed="2.78" allow="pedestrian" oneway="1" width="2.00"/>
    <type id="highway.primary" priority="12" numLanes="2" speed="27.78" disallow="tram rail_urban rail rail_electric rail_fast ship" oneway="0"/>
    <type id="highway.primary_link" priority="7" numLanes="1" speed="22.22" disallow="tram rail_urban rail rail_electric rail_fast ship" oneway="0"/>
    <type id="highway.raceway" priority="15" numLanes="2" speed="83.33" allow="vip" oneway="0"/>
    <type id="highway.residential" priority="3" numLanes="1" speed="13.89" disallow="tram rail_urban rail rail_electric rail_fast ship" oneway="0"/>
    <type id="highway.secondary" priority="11" numLanes="1" speed="27.78" disallow="tram rail_urban rail rail_electric rail_fast ship" oneway="0"/>
    <type id="highway.secondary_link" priority="6" numLanes="1" speed="22.22" disallow="tram rail_urban rail rail_electric rail_fast ship" oneway="0"/>
    <type id="highway.service" priority="1" numLanes="1" speed="5.56" allow="pedestrian delivery bicycle" oneway="0"/>
    <type id="highway.stairs" priority="1" numLanes="1" speed="1.39" allow="pedestrian" oneway="1" width="2.00"/>
    <type id="highway.step" priority="1" numLanes="1" speed="1.39" allow="pedestrian" oneway="1" width="2.00"/>
    <type id="highway.steps" priority="1" numLanes="1" speed="1.39" allow="pedestrian" oneway="1" width="2.00"/>
    <type id="highway.tertiary" priority="10" numLanes="1" speed="22.22" disallow="tram rail_urban rail rail_electric rail_fast ship" oneway="0"/>
    <type id="highway.tertiary_link" priority="5" numLanes="1" speed="22.22" disallow="tram rail_urban rail rail_electric rail_fast ship" oneway="0"/>
    <type id="highway.track" priority="1" numLanes="1" speed="5.56" disallow="tram rail_urban rail rail_electric rail_fast ship" oneway="0"/>
    <type id="highway.trunk" priority="13" numLanes="2" speed="27.78" disallow="pedestrian bicycle tram rail_urban rail rail_electric rail_fast ship" oneway="0"/>
    <type id="highway.trunk_link" priority="8" numLanes="1" speed="22.22" disallow="pedestrian bicycle tram rail_urban rail rail_electric rail_fast ship" oneway="0"/>
    <type id="highway.unclassified" priority="4" numLanes="1" speed="13.89" disallow="tram rail_urban rail rail_electric rail_fast ship" oneway="0"/>
    <type id="highway.unsurfaced" priority="1" numLanes="1" speed="8.33" disallow="tram rail_urban rail rail_electric rail_fast ship" oneway="0"/>
    <type id="railway.highspeed" priority="21" numLanes="1" speed="69.44" allow="rail_fast" oneway="1"/>
    <type id="railway.light_rail" priority="19" numLanes="1" speed="27.78" allow="rail_urban" oneway="1"/>
    <type id="railway.preserved" priority="16" numLanes="1" speed="27.78" allow="rail" oneway="1"/>
    <type id="railway.rail" priority="20" numLanes="1" speed="44.44" allow="rail" oneway="1"/>
    <type id="railway.subway" priority="18" numLanes="1" speed="27.78" allow="rail_urban" oneway="1"/>
    <type id="railway.tram" priority="17" numLanes="1" speed="13.89" allow="tram" oneway="1"/>

    <edge id=":111887540_0" function="internal">
        <lane id=":111887540_0_0" index="0" disallow="tram rail_urban rail rail_electric rail_fast ship" speed="13.89" length="0.23" shape="525.08,1762.92 525.07,1762.63">
            <neigh lane=":111887540_2_0"/>
        </lane>
    </edge>
    <edge id=":111887540_1" function="internal">
        <lane id=":111887540_1_0" index="0" disallow="tram rail_urban rail rail_electric rail_fast ship" speed="3.65" length="2.34" shape="525.08,1762.92 524.25,1761.74 523.44,1761.35"/>
    </edge>
    <edge id=":111887540_4" function="internal">
        <lane id=":111887540_4_0" index="0" disallow="tram rail_urban rail rail_electric rail_fast ship" speed="3.65" length="2.34" shape="523.44,1761.35 522.65,1761.77 521.88,1762.99"/>
    </edge>
    <edge id=":111887540_2" function="internal">
        <lane id=":111887540_2_0" index="0" disallow="tram rail_urban rail rail_electric rail_fast ship" speed="13.89" length="0.23" shape="521.88,1762.83 521.88,1762.99">
            <neigh lane=":111887540_0_0"/>
        </lane>
    </edge>
    <edge id=":111887540_3" function="internal">
        <lane id=":111887540_3_0" index="0" disallow="tram rail_urban rail rail_electric rail_fast ship" speed="3.65" length="2.34" shape="521.88,1762.83 522.75,1763.97 523.57,1764.32"/>
    </edge>
    <edge id=":111887540_5" function="internal">
        <lane id=":111887540_5_0" index="0" disallow="tram rail_urban rail rail_electric rail_fast ship" speed="3.65" length="2.34" shape="523.57,1764.32 524.35,1763.87 525.07,1762.63"/>
    </edge>
    <edge id=":111929658_0" function="internal">
        <lane id=":111929658_0_0" index="0" disallow="tram rail_urban rail rail_electric rail_fast ship" speed="13.89" length="0.29" shape="451.33,1490.95 451.06,1490.97">
            <neigh lane=":111929658_2_0"/>
        </lane>
    </edge>
    <edge id=":111929658_1" function="internal">
        <lane id=":111929658_1_0" index="0" disallow="tram rail_urban rail rail_electric rail_fast ship" speed="3.65" length="2.34" shape="451.33,1490.95 450.19,1491.85 449.86,1492.68"/>
    </edge>
    <edge id=":111929658_4" function="internal">
        <lane id=":111929658_4_0" index="0" disallow="tram rail_urban rail rail_electric rail_fast ship" speed="3.65" length="2.34" shape="449.86,1492.68 450.32,1493.44 451.58,1494.14"/>
    </edge>
    <edge id=":111929658_2" function="internal">
        <lane id=":111929658_2_0" index="0" disallow="tram rail_urban rail rail_electric rail_fast ship" speed="13.89" length="0.29" shape="451.27,1494.17 451.58,1494.14">
            <neigh lane=":111929658_0_0"/>
        </lane>
    </edge>
    <edge id=":111929658_3" function="internal">
        <lane id=":111929658_3_0" index="0" disallow="tram rail_urban rail rail_electric rail_fast ship" speed="3.65" length="2.34" shape="451.27,1494.17 452.42,1493.29 452.76,1492.46"/>
    </edge>
    <edge id=":111929658_5" function="internal">
        <lane id=":111929658_5_0" index="0" disallow="tram rail_urban rail rail_electric rail_fast ship" speed="3.65" length="2.34" shape="452.76,1492.46 452.31,1491.69 451.06,1490.97"/>
    </edge>
    <edge id=":1186078472_0" function="internal">
        <lane id=":1186078472_0_0" index="0" disallow="tram rail_urban rail rail_electric rail_fast ship" speed="13.89" length="0.68" shape="614.74,927.05 615.46,926.91"/>
        <lane id=":1186078472_0_1" index="1" disallow="tram rail_urban rail rail_electric rail_fast ship" speed="13.89" length="0.68" shape="615.38,930.18 616.06,930.05">
            <neigh lane=":1186078472_3_1"/>
        </lane>
    </edge>
    <edge id=":1186078472_2" function="internal">
        <lane id=":1186078472_2_0" index="0" disallow="tram rail_urban rail rail_electric rail_fast ship" speed="3.65" length="2.34" shape="615.38,930.18 614.36,931.20 614.13,932.07"/>
    </edge>
    <edge id=":1186078472_6" function="internal">
        <lane id=":1186078472_6_0" index="0" disallow="tram rail_urban rail rail_electric rail_fast ship" speed="3.65" length="2.34" shape="614.13,932.07 614.68,932.77 616.01,933.32"/>
    </edge>
    <edge id=":1186078472_3" function="internal">
        <lane id=":1186078472_3_0" index="0" disallow="tram rail_urban rail rail_electric rail_fast ship" speed="13.89" length="0.68" shape="617.27,936.34 616.65,936.46"/>
        <lane id=":1186078472_3_1" index="1" disallow="tram rail_urban rail rail_electric rail_fast ship" speed="13.89" length="0.68" shape="616.66,933.20 616.01,933.32">
            <neigh lane=":1186078472_0_1"/>
        </lane>
    </edge>
    <edge id=":1186078472_5" function="internal">
        <lane id=":1186078472_5_0" index="0" disallow="tram rail_urban rail rail_electric rail_fast ship" speed="3.65" length="2.34" shape="616.66,933.20 617.69,932.18 617.93,931.32"/>
    </edge>
    <edge id=":1186078472_7" function="internal">
        <lane id=":1186078472_7_0" index="0" disallow="tram rail_urban rail rail_electric rail_fast ship" speed="3.65" length="2.34" shape="617.93,931.32 617.39,930.61 616.06,930.05"/>
    </edge>
    <edge id=":1186078806_0" function="internal">
        <lane id=":1186078806_0_0" index="0" disallow="tram rail_urban rail rail_electric rail_fast ship" speed="13.89" length="0.29" shape="682.75,836.98 682.72,836.71">
            <neigh lane=":1186078806_2_0"/>
        </lane>
    </edge>
    <edge id=":1186078806_1" function="internal">
        <lane id=":1186078806_1_0" index="0" disallow="tram rail_urban rail rail_electric rail_fast ship" speed="3.65" length="2.34" shape="682.75,836.98 681.84,835.86 681.01,835.53"/>
    </edge>
    <edge id=":1186078806_4" function="internal">
        <lane id=":1186078806_4_0" index="0" disallow="tram rail_urban rail rail_electric rail_fast ship" speed="3.65" length="2.34" shape="681.01,835.53 680.25,836.00 679.56,837.27"/>
    </edge>
    <edge id=":1186078806_2" function="internal">
        <lane id=":1186078806_2_0" index="0" disallow="tram rail_urban rail rail_electric rail_fast ship" speed="13.89" length="0.29" shape="679.53,836.96 679.56,837.27">
            <neigh lane=":1186078806_0_0"/>
        </lane>
    </edge>
    <edge id=":1186078806_3" function="internal">
        <lane id=":1186078806_3_0" index="0" disallow="tram rail_urban rail rail_electric rail_fast ship" speed="3.65" length="2.34" shape="679.53,836.96 680.43,838.09 681.26,838.43"/>
    </edge>
    <edge id=":1186078806_5" function="internal">
        <lane id=":1186078806_5_0" index="0" disallow="tram rail_urban rail rail_electric rail_fast ship" speed="3.65" length="2.34" shape="681.26,838.43 682.02,837.97 682.72,836.71"/>
    </edge>
    <edge id=":1262187729_0" function="internal">
        <lane id=":1262187729_0_0" index="0" disallow="tram rail_urban rail rail_electric rail_fast ship" speed="8.33" length="4.87" shape="1103.91,1276.15 1098.98,1276.51">
            <neigh lane=":1262187729_2_0"/>
        </lane>
    </edge>
    <edge id=":1262187729_1" function="internal">
        <lane id=":1262187729_1_0" index="0" disallow="tram rail_urban rail rail_electric rail_fast ship" speed="3.65" length="4.67" shape="1103.91,1276.15 1102.75,1277.02 1102.40,1277.84 1102.84,1278.61 1104.08,1279.35"/>
    </edge>
    <edge id=":1262187729_2" function="internal">
        <lane id=":1262187729_2_0" index="0" disallow="tram rail_urban rail rail_electric rail_fast ship" speed="8.33" length="4.87" shape="1099.28,1279.70 1104.08,1279.35">
            <neigh lane=":1262187729_0_0"/>
        </lane>
    </edge>
    <edge id=":1262187729_3" function="internal">
        <lane id=":1262187729_3_0" index="0" disallow="tram rail_urban rail rail_electric rail_fast ship" speed="3.65" length="4.67" shape="1099.28,1279.70 1100.40,1278.79 1100.73,1277.96 1100.25,1277.20 1098.98,1276.51"/>
    </edge>
    <edge id=":1262187740_0" function="internal">
        <lane id=":1262187740_0_0" index="0" allow="bicycle" speed="6.09" length="8.87" shape="1205.19,1273.47 1204.87,1270.21 1204.16,1267.93 1203.07,1266.62 1201.60,1266.29"/>
    </edge>
    <edge id=":1262187740_1" function="internal">
        <lane id=":1262187740_1_0" index="0" allow="bicycle" speed="4.17" length="3.22" width="1.00" shape="1202.10,1271.66 1202.99,1271.71 1203.63,1272.03 1204.03,1272.63 1204.19,1273.51"/>
    </edge>
    <edge id=":1262187740_2" function="internal">
        <lane id=":1262187740_2_0" index="0" disallow="tram rail_urban rail rail_electric rail_fast ship" speed="3.65" length="4.67" shape="1202.00,1270.57 1203.12,1269.66 1203.45,1268.83 1202.97,1268.07 1201.71,1267.38"/>
    </edge>
    <edge id=":1262187748_0" function="internal">
        <lane id=":1262187748_0_0" index="0" disallow="tram rail_urban rail rail_electric rail_fast ship" speed="8.33" length="5.08" shape="1049.05,1196.05 1048.66,1191.02">
            <neigh lane=":1262187748_2_0"/>
        </lane>
    </edge>
    <edge id=":1262187748_1" function="internal">
        <lane id=":1262187748_1_0" index="0" disallow="tram rail_urban rail rail_electric rail_fast ship" speed="3.65" length="2.34" shape="1049.05,1196.05 1048.15,1194.93 1047.32,1194.60"/>
    </edge>
    <edge id=":1262187748_4" function="internal">
        <lane id=":1262187748_4_0" index="0" disallow="tram rail_urban rail rail_electric rail_fast ship" speed="3.65" length="2.34" shape="1047.32,1194.60 1046.56,1195.07 1045.86,1196.33"/>
    </edge>
    <edge id=":1262187748_2" function="internal">
        <lane id=":1262187748_2_0" index="0" disallow="tram rail_urban rail rail_electric rail_fast ship" speed="8.33" length="5.08" shape="1045.47,1191.24 1045.86,1196.33">
            <neigh lane=":1262187748_0_0"/>
        </lane>
    </edge>
    <edge id=":1262187748_3" function="internal">
        <lane id=":1262187748_3_0" index="0" disallow="tram rail_urban rail rail_electric rail_fast ship" speed="3.65" length="2.34" shape="1045.47,1191.24 1046.35,1192.38 1047.18,1192.73"/>
    </edge>
    <edge id=":1262187748_5" function="internal">
        <lane id=":1262187748_5_0" index="0" disallow="tram rail_urban rail rail_electric rail_fast ship" speed="3.65" length="2.34" shape="1047.18,1192.73 1047.95,1192.27 1048.66,1191.02"/>
    </edge>
    <edge id=":1262196993_0" function="internal">
        <lane id=":1262196993_0_0" index="0" disallow="tram rail_urban rail rail_electric rail_fast ship" speed="13.89" length="0.10" shape="657.81,602.45 657.81,602.45">
            <neigh lane=":1262196993_2_0"/>
        </lane>
    </edge>
    <edge id=":1262196993_1" function="internal">
        <lane id=":1262196993_1_0" index="0" disallow="tram rail_urban rail rail_electric rail_fast ship" speed="3.65" length="2.34" shape="657.81,602.45 656.93,601.30 656.11,600.95"/>
    </edge>
    <edge id=":1262196993_4" function="internal">
        <lane id=":1262196993_4_0" index="0" disallow="tram rail_urban rail rail_electric rail_fast ship" speed="3.65" length="2.34" shape="656.11,600.95 655.33,601.40 654.61,602.65"/>
    </edge>
    <edge id=":1262196993_2" function="internal">
        <lane id=":1262196993_2_0" index="0" disallow="tram rail_urban rail rail_electric rail_fast ship" speed="13.89" length="0.10" shape="654.61,602.65 654.61,602.65">
            <neigh lane=":1262196993_0_0"/>
        </lane>
    </edge>
    <edge id=":1262196993_3" function="internal">
        <lane id=":1262196993_3_0" index="0" disallow="tram rail_urban rail rail_electric rail_fast ship" speed="3.65" length="2.34" shape="654.61,602.65 655.49,603.80 656.31,604.15"/>
    </edge>
    <edge id=":1262196993_5" function="internal">
        <lane id=":1262196993_5_0" index="0" disallow="tram rail_urban rail rail_electric rail_fast ship" speed="3.65" length="2.34" shape="656.31,604.15 657.09,603.70 657.81,602.45"/>
    </edge>
    <edge id=":1262196995_0" function="internal">
        <lane id=":1262196995_0_0" index="0" disallow="tram rail_urban rail rail_electric rail_fast ship" speed="13.89" length="0.10" shape="656.41,580.87 656.41,580.87">
            <neigh lane=":1262196995_2_0"/>
        </lane>
    </edge>
    <edge id=":1262196995_1" function="internal">
        <lane id=":1262196995_1_0" index="0" disallow="tram rail_urban rail rail_electric rail_fast ship" speed="3.65" length="2.34" shape="656.41,580.87 655.53,579.72 654.71,579.37"/>
    </edge>
    <edge id=":1262196995_4" function="internal">
        <lane id=":1262196995_4_0" index="0" disallow="tram rail_urban rail rail_electric rail_fast ship" speed="3.65" length="2.34" shape="654.71,579.37 653.93,579.82 653.21,581.07"/>
    </edge>
    <edge id=":1262196995_2" function="internal">
        <lane id=":1262196995_2_0" index="0" disallow="tram rail_urban rail rail_electric rail_fast ship" speed="13.89" length="0.10" shape="653.21,581.07 653.21,581.07">
            <neigh lane=":1262196995_0_0"/>
        </lane>
    </edge>
    <edge id=":1262196995_3" function="internal">
        <lane id=":1262196995_3_0" index="0" disallow="tram rail_urban rail rail_electric rail_fast ship" speed="3.65" length="2.34" shape="653.21,581.07 654.09,582.22 654.91,582.57"/>
    </edge>
    <edge id=":1262196995_5" function="internal">
        <lane id=":1262196995_5_0" index="0" disallow="tram rail_urban rail rail_electric rail_fast ship" speed="3.65" length="2.34" shape="654.91,582.57 655.69,582.12 656.41,580.87"/>
    </edge>
    <edge id=":1262222399_0" function="internal">
        <lane id=":1262222399_0_0" index="0" disallow="tram rail_urban rail rail_electric rail_fast ship" speed="6.51" length="9.06" shape="868.22,1200.21 865.76,1200.05 863.94,1199.14 862.76,1197.46 862.21,1195.01"/>
    </edge>
    <edge id=":1262222399_1" function="internal">
        <lane id=":1262222399_1_0" index="0" disallow="tram rail_urban rail rail_electric rail_fast ship" speed="8.33" length="14.72" shape="868.22,1200.21 864.52,1200.51 860.85,1200.83 857.20,1201.24 853.52,1201.79">
            <neigh lane=":1262222399_9_0"/>
        </lane>
    </edge>
    <edge id=":1262222399_2" function="internal">
        <lane id=":1262222399_2_0" index="0" disallow="tram rail_urban rail rail_electric rail_fast ship" speed="8.12" length="14.47" shape="868.22,1200.21 864.37,1201.08 861.71,1202.99 860.23,1205.92 859.94,1209.88"/>
    </edge>
    <edge id=":1262222399_3" function="internal">
        <lane id=":1262222399_3_0" index="0" disallow="tram rail_urban rail rail_electric rail_fast ship" speed="3.65" length="4.67" shape="868.22,1200.21 867.09,1201.10 866.76,1201.93 867.22,1202.70 868.48,1203.40"/>
    </edge>
    <edge id=":1262222399_4" function="internal">
        <lane id=":1262222399_4_0" index="0" disallow="tram rail_urban rail rail_electric rail_fast ship" speed="6.65" length="9.37" shape="863.13,1209.66 863.32,1207.10 864.27,1205.20 866.00,1203.96 868.48,1203.40"/>
    </edge>
    <edge id=":1262222399_5" function="internal">
        <lane id=":1262222399_5_0" index="0" disallow="tram rail_urban rail rail_electric rail_fast ship" speed="8.33" length="14.72" shape="863.13,1209.66 862.21,1195.01">
            <neigh lane=":1262222399_13_0"/>
        </lane>
    </edge>
    <edge id=":1262222399_6" function="internal">
        <lane id=":1262222399_6_0" index="0" disallow="tram rail_urban rail rail_electric rail_fast ship" speed="7.81" length="14.52" shape="863.13,1209.66 862.29,1205.64 860.41,1202.99 857.49,1201.70 853.52,1201.79"/>
    </edge>
    <edge id=":1262222399_7" function="internal">
        <lane id=":1262222399_7_0" index="0" disallow="tram rail_urban rail rail_electric rail_fast ship" speed="3.65" length="4.67" shape="863.13,1209.66 862.25,1208.52 861.43,1208.17 860.66,1208.62 859.94,1209.88"/>
    </edge>
    <edge id=":1262222399_8" function="internal">
        <lane id=":1262222399_8_0" index="0" disallow="tram rail_urban rail rail_electric rail_fast ship" speed="6.31" length="9.08" shape="853.92,1204.97 856.40,1204.91 858.24,1205.71 859.41,1207.37 859.94,1209.88"/>
    </edge>
    <edge id=":1262222399_9" function="internal">
        <lane id=":1262222399_9_0" index="0" disallow="tram rail_urban rail rail_electric rail_fast ship" speed="8.33" length="14.72" shape="853.92,1204.97 857.57,1204.42 861.18,1204.02 864.80,1203.70 868.48,1203.40">
            <neigh lane=":1262222399_1_0"/>
        </lane>
    </edge>
    <edge id=":1262222399_10" function="internal">
        <lane id=":1262222399_10_0" index="0" disallow="tram rail_urban rail rail_electric rail_fast ship" speed="8.33" length="14.49" shape="853.92,1204.97 857.80,1203.77 860.47,1201.71 861.94,1198.79 862.21,1195.01"/>
    </edge>
    <edge id=":1262222399_11" function="internal">
        <lane id=":1262222399_11_0" index="0" disallow="tram rail_urban rail rail_electric rail_fast ship" speed="3.65" length="4.68" shape="853.92,1204.97 855.01,1204.02 855.31,1203.18 854.82,1202.43 853.52,1201.79"/>
    </edge>
    <edge id=":1262222399_12" function="internal">
        <lane id=":1262222399_12_0" index="0" disallow="tram rail_urban rail rail_electric rail_fast ship" speed="6.92" length="9.64" shape="859.01,1195.14 858.84,1197.67 857.86,1199.62 856.09,1200.99 853.52,1201.79"/>
    </edge>
    <edge id=":1262222399_13" function="internal">
        <lane id=":1262222399_13_0" index="0" disallow="tram rail_urban rail rail_electric rail_fast ship" speed="8.33" length="14.72" shape="859.01,1195.14 859.94,1209.88">
            <neigh lane=":1262222399_5_0"/>
        </lane>
    </edge>
    <edge id=":1262222399_14" function="internal">
        <lane id=":1262222399_14_0" index="0" disallow="tram rail_urban rail rail_electric rail_fast ship" speed="8.03" length="14.34" shape="859.01,1195.14 859.87,1199.02 861.73,1201.69 864.60,1203.15 868.48,1203.40"/>
    </edge>
    <edge id=":1262222399_15" function="internal">
        <lane id=":1262222399_15_0" index="0" disallow="tram rail_urban rail rail_electric rail_fast ship" speed="3.65" length="4.68" shape="859.01,1195.14 859.86,1196.31 860.68,1196.68 861.46,1196.24 862.21,1195.01"/>
    </edge>
    <edge id=":1262222402_0" function="internal">
        <lane id=":1262222402_0_0" index="0" disallow="tram rail_urban rail rail_electric rail_fast ship" speed="6.62" length="9.16" shape="725.13,1212.37 722.60,1212.19 720.73,1211.26 719.50,1209.60 718.92,1207.20"/>
    </edge>
    <edge id=":1262222402_1" function="internal">
        <lane id=":1262222402_1_0" index="0" disallow="tram rail_urban rail rail_electric rail_fast ship" speed="7.96" length="14.27" shape="725.13,1212.37 721.29,1213.17 718.66,1215.01 717.22,1217.89 716.99,1221.80"/>
    </edge>
    <edge id=":1262222402_2" function="internal">
        <lane id=":1262222402_2_0" index="0" disallow="tram rail_urban rail rail_electric rail_fast ship" speed="3.65" length="4.67" shape="725.13,1212.37 723.98,1213.25 723.64,1214.07 724.08,1214.85 725.33,1215.57"/>
    </edge>
    <edge id=":1262222402_3" function="internal">
        <lane id=":1262222402_3_0" index="0" disallow="tram rail_urban rail rail_electric rail_fast ship" speed="6.46" length="9.03" shape="720.18,1221.54 720.33,1219.06 721.23,1217.24 722.90,1216.07 725.33,1215.57"/>
    </edge>
    <edge id=":1262222402_4" function="internal">
        <lane id=":1262222402_4_0" index="0" disallow="tram rail_urban rail rail_electric rail_fast ship" speed="8.33" length="14.37" shape="720.18,1221.54 718.92,1207.20">
            <neigh lane=":1262222402_6_0"/>
        </lane>
    </edge>
    <edge id=":1262222402_5" function="internal">
        <lane id=":1262222402_5_0" index="0" disallow="tram rail_urban rail rail_electric rail_fast ship" speed="3.65" length="4.67" shape="720.18,1221.54 719.28,1220.41 718.45,1220.08 717.69,1220.54 716.99,1221.80"/>
    </edge>
    <edge id=":1262222402_6" function="internal">
        <lane id=":1262222402_6_0" index="0" disallow="tram rail_urban rail rail_electric rail_fast ship" speed="8.33" length="14.37" shape="715.73,1207.50 716.99,1221.80">
            <neigh lane=":1262222402_4_0"/>
        </lane>
    </edge>
    <edge id=":1262222402_7" function="internal">
        <lane id=":1262222402_7_0" index="0" disallow="tram rail_urban rail rail_electric rail_fast ship" speed="8.09" length="14.21" shape="715.73,1207.50 716.63,1211.24 718.53,1213.83 721.43,1215.27 725.33,1215.57"/>
    </edge>
    <edge id=":1262222402_8" function="internal">
        <lane id=":1262222402_8_0" index="0" disallow="tram rail_urban rail rail_electric rail_fast ship" speed="3.65" length="4.67" shape="715.73,1207.50 716.64,1208.62 717.47,1208.95 718.23,1208.47 718.92,1207.20"/>
    </edge>
    <edge id=":12649670_0" function="internal">
        <lane id=":12649670_0_0" index="0" disallow="tram rail_urban rail rail_electric rail_fast ship" speed="13.89" length="8.81" shape="1452.87,1661.11 1452.22,1658.67 1451.05,1657.17 1449.91,1655.67 1449.39,1653.23"/>
    </edge>
    <edge id=":12649670_1" function="internal">
        <lane id=":12649670_1_0" index="0" disallow="tram rail_urban rail rail_electric rail_fast ship" speed="13.89" length="8.01" shape="1442.99,1653.29 1443.14,1661.31"/>
        <lane id=":12649670_1_1" index="1" disallow="tram rail_urban rail rail_electric rail_fast ship" speed="13.89" length="8.01" shape="1446.19,1653.26 1446.34,1661.25"/>
    </edge>
    <edge id=":1267301412_0" function="internal">
        <lane id=":1267301412_0_0" index="0" disallow="tram rail_urban rail rail_electric rail_fast ship" speed="5.42" length="6.17" shape="691.29,912.82 690.61,912.56 690.06,911.56 689.61,909.82 689.29,907.34"/>
    </edge>
    <edge id=":1267301412_1" function="internal">
        <lane id=":1267301412_1_0" index="0" disallow="tram rail_urban rail rail_electric rail_fast ship" speed="13.89" length="10.22" shape="691.29,912.82 681.15,914.34"/>
        <lane id=":1267301412_1_1" index="1" disallow="tram rail_urban rail rail_electric rail_fast ship" speed="13.89" length="10.22" shape="691.75,915.99 681.63,917.50">
            <neigh lane=":1267301412_4_1"/>
        </lane>
    </edge>
    <edge id=":1267301412_3" function="internal">
        <lane id=":1267301412_3_0" index="0" disallow="tram rail_urban rail rail_electric rail_fast ship" speed="3.65" length="2.34" shape="691.75,915.99 690.68,916.95 690.40,917.80"/>
    </edge>
    <edge id=":1267301412_11" function="internal">
        <lane id=":1267301412_11_0" index="0" disallow="tram rail_urban rail rail_electric rail_fast ship" speed="3.65" length="2.34" shape="690.40,917.80 690.91,918.54 692.21,919.16"/>
    </edge>
    <edge id=":1267301412_4" function="internal">
        <lane id=":1267301412_4_0" index="0" disallow="tram rail_urban rail rail_electric rail_fast ship" speed="13.89" length="10.22" shape="682.59,923.83 692.67,922.32"/>
        <lane id=":1267301412_4_1" index="1" disallow="tram rail_urban rail rail_electric rail_fast ship" speed="13.89" length="10.22" shape="682.11,920.66 692.21,919.16">
            <neigh lane=":1267301412_1_1"/>
        </lane>
    </edge>
    <edge id=":1267301412_6" function="internal">
        <lane id=":1267301412_6_0" index="0" disallow="tram rail_urban rail rail_electric rail_fast ship" speed="8.87" length="5.11" shape="682.11,920.66 685.67,919.36 686.55,918.38"/>
    </edge>
    <edge id=":1267301412_7" function="internal">
        <lane id=":1267301412_7_0" index="0" disallow="tram rail_urban rail rail_electric rail_fast ship" speed="3.65" length="2.34" shape="682.11,920.66 683.18,919.69 683.45,918.84"/>
    </edge>
    <edge id=":1267301412_12" function="internal">
        <lane id=":1267301412_12_0" index="0" disallow="tram rail_urban rail rail_electric rail_fast ship" speed="8.87" length="11.80" shape="686.55,918.38 688.06,916.71 689.26,912.70 689.29,907.34"/>
    </edge>
    <edge id=":1267301412_13" function="internal">
        <lane id=":1267301412_13_0" index="0" disallow="tram rail_urban rail rail_electric rail_fast ship" speed="3.65" length="2.34" shape="683.45,918.84 682.94,918.11 681.63,917.50"/>
    </edge>
    <edge id=":1267301412_8" function="internal">