<?xml version="1.0" encoding="UTF-8"?>

<!-- generated on 04/15/20 16:20:34 by Eclipse SUMO netedit Version 1.5.0
<configuration xmlns:xsi="http://www.w3.org/2001/XMLSchema-instance" xsi:noNamespaceSchemaLocation="http://sumo.dlr.de/xsd/netconvertConfiguration.xsd">

    <input>
        <sumo-net-file value="GCDnew.net.xml"/>
    </input>

    <output>
        <output-file value="GCDnew.net.xml"/>
    </output>

    <processing>
        <geometry.min-radius.fix.railways value="false"/>
        <geometry.max-grade.fix value="false"/>
        <offset.disable-normalization value="true"/>
        <lefthand value="true"/>
    </processing>

    <junctions>
        <no-turnarounds value="true"/>
        <junctions.corner-detail value="5"/>
        <junctions.limit-turn-speed value="5.5"/>
        <rectangular-lane-cut value="false"/>
    </junctions>

    <pedestrian>
        <walkingareas value="false"/>
    </pedestrian>

    <netedit>
        <route-files value="C:\Users\eoinb\Desktop\Thesis\Sumo\Scenario1\test.rou.xml"/>
    </netedit>

    <report>
        <aggregate-warnings value="5"/>
    </report>

</configuration>
-->

<routes xmlns:xsi="http://www.w3.org/2001/XMLSchema-instance" xsi:noNamespaceSchemaLocation="http://sumo.dlr.de/xsd/routes_file.xsd">
    <route edges="256024070#1 256024070#2 256024070#3 37096473#0 37096473#1 37096473#2 37096473#3 37096473#4 37096473#5 44668631#0 44668631#1 44668630#0 44668630#1 44668630#2 44668630#3 -22977599#2 -44668629#2 -44668629#1" color="yellow" id="route_0"/>
</routes>
