<?xml version="1.0" encoding="UTF-8"?>

<!-- generated on 04/15/20 16:40:05 by Eclipse SUMO GUI Version 1.5.0
-->

<configuration xmlns:xsi="http://www.w3.org/2001/XMLSchema-instance" xsi:noNamespaceSchemaLocation="http://sumo.dlr.de/xsd/sumoConfiguration.xsd">

    <input>
        <net-file value="GCDnew.net.xml"/>
        <route-files value="without_bus.rou.xml"/>
    </input>

</configuration>
