<?xml version="1.0" encoding="UTF-8"?>
<!-- generated on 2020-02-18 14:15:04.766027 by randomTrips.py v1_4_0+0000-d7c9afb42e
  options: -n GCD.net.xml -e 20 <doubleminus>route-file test.rou.xml
-->
<routes xmlns:xsi="http://www.w3.org/2001/XMLSchema-instance" xsi:noNamespaceSchemaLocation="http://sumo.dlr.de/xsd/routes_file.xsd">
    <trip id="0" depart="0.00" from="4834965#0" to="151364#1"/>
    <trip id="1" depart="1.00" from="-4926000#1" to="-162745564#4"/>
    <trip id="2" depart="2.00" from="409845700" to="80390834#1"/>
    <trip id="3" depart="3.00" from="-22977599#2" to="44668630#3"/>
    <trip id="4" depart="4.00" from="709876472" to="153340545#0"/>
    <trip id="5" depart="5.00" from="9186553" to="-46160696#2"/>
    <trip id="6" depart="6.00" from="-260607181#4" to="37096473#2"/>
    <trip id="7" depart="7.00" from="45755442#0" to="-376339235"/>
    <trip id="8" depart="8.00" from="455486016" to="80390834#3"/>
    <trip id="9" depart="9.00" from="-129068928#5" to="256024070#3"/>
    <trip id="10" depart="10.00" from="-37096473#1" to="73654299"/>
    <trip id="11" depart="11.00" from="246717067#1" to="38358413"/>
    <trip id="12" depart="12.00" from="-4825239#0" to="4926000#2"/>
    <trip id="13" depart="13.00" from="-22977599#3" to="240818355#1"/>
    <trip id="14" depart="14.00" from="9186553" to="-256024070#2"/>
    <trip id="15" depart="15.00" from="162745564#1" to="44658728#0"/>
    <trip id="16" depart="16.00" from="-4934627#1" to="37096475#0"/>
    <trip id="17" depart="17.00" from="-162745564#4" to="10577138#0"/>
    <trip id="18" depart="18.00" from="-4825258#1" to="-4934597"/>
    <trip id="19" depart="19.00" from="409845695#1" to="-256024070#1"/>
</routes>
