<?xml version="1.0" encoding="UTF-8"?>

<!-- generated on 04/29/20 10:52:12 by Eclipse SUMO netedit Version 1.5.0
<configuration xmlns:xsi="http://www.w3.org/2001/XMLSchema-instance" xsi:noNamespaceSchemaLocation="http://sumo.dlr.de/xsd/netconvertConfiguration.xsd">

    <input>
        <sumo-net-file value="GCDnew.net.xml"/>
    </input>

    <output>
        <output-file value="GCDnew.net.xml"/>
    </output>

    <processing>
        <geometry.min-radius.fix.railways value="false"/>
        <geometry.max-grade.fix value="false"/>
        <offset.disable-normalization value="true"/>
        <lefthand value="true"/>
    </processing>

    <junctions>
        <no-turnarounds value="true"/>
        <junctions.corner-detail value="5"/>
        <junctions.limit-turn-speed value="5.5"/>
        <rectangular-lane-cut value="false"/>
    </junctions>

    <pedestrian>
        <walkingareas value="false"/>
    </pedestrian>

    <netedit>
        <additional-files value="C:\Users\eoinb\Desktop\Thesis\Sumo\Scenario2b\sc2b.add.xml"/>
    </netedit>

    <report>
        <aggregate-warnings value="5"/>
    </report>

</configuration>
-->

<additional xmlns:xsi="http://www.w3.org/2001/XMLSchema-instance" xsi:noNamespaceSchemaLocation="http://sumo.dlr.de/xsd/additional_file.xsd">
    <busStop id="busStop1a" lane="-22689981#1_0" startPos="43.71" endPos="53.71"/>
    <busStop id="busStop1b" lane="110545289#3_0" startPos="17.95" endPos="27.95"/>
    <busStop id="busStop2a" lane="-102694945_0" startPos="124.87" endPos="134.87"/>
    <busStop id="busStop2b" lane="-4825258#1_0" startPos="23.59" endPos="33.59"/>
</additional>
