<?xml version="1.0" encoding="UTF-8"?>

<!-- generated on 04/29/20 15:53:56 by Eclipse SUMO netedit Version 1.5.0
<configuration xmlns:xsi="http://www.w3.org/2001/XMLSchema-instance" xsi:noNamespaceSchemaLocation="http://sumo.dlr.de/xsd/netconvertConfiguration.xsd">

    <input>
        <sumo-net-file value="GCDnew.net.xml"/>
    </input>

    <output>
        <output-file value="GCDnew.net.xml"/>
    </output>

    <processing>
        <geometry.min-radius.fix.railways value="false"/>
        <geometry.max-grade.fix value="false"/>
        <offset.disable-normalization value="true"/>
        <lefthand value="true"/>
    </processing>

    <junctions>
        <no-turnarounds value="true"/>
        <junctions.corner-detail value="5"/>
        <junctions.limit-turn-speed value="5.5"/>
        <rectangular-lane-cut value="false"/>
    </junctions>

    <pedestrian>
        <walkingareas value="false"/>
    </pedestrian>

    <netedit>
        <route-files value="C:\Users\eoinb\Desktop\Thesis\Sumo\Scenario3a\sc3a.rou.xml"/>
    </netedit>

    <report>
        <aggregate-warnings value="5"/>
    </report>

</configuration>
-->

<routes xmlns:xsi="http://www.w3.org/2001/XMLSchema-instance" xsi:noNamespaceSchemaLocation="http://sumo.dlr.de/xsd/routes_file.xsd">
    <vType id="vType_0" vClass="bus"/>
	<route edges="256024070#0 256024070#1 256024070#2 256024070#3 768702593#0 768702593#1 768702593#2 768702594#0 -768702594#0 -768702593#2 -768702593#1 -768702593#0 -256024070#3 -256024070#2 -256024070#1 -256024070#0 256024070#0 256024070#1 256024070#2 256024070#3 768702593#0 768702593#1 768702593#2 768702594#0" color="yellow" id="route_0"/>
    <route edges="256024070#0 256024070#1 256024070#2 256024070#3 768702593#0 768702593#1 768702593#2 768702594#0 -768702594#0 -768702593#2 -768702593#1 -768702593#0 -256024070#3 -256024070#2 -256024070#1 -256024070#0 256024070#0 256024070#1 256024070#2 256024070#3 768702593#0 768702593#1 768702593#2 768702594#0" color="yellow" id="bus_route_0">
		<stop busStop="busStop1" duration="20"/>
	</route>
	
	<vehicle id="vehicle_0" type="vType_0" depart="0.00" route="bus_route_0"/>
    <vehicle id="vehicle_1" type="DEFAULT_VEHTYPE" depart="0.00" color="red" route="route_0"/>
    <vehicle id="vehicle_10" type="DEFAULT_VEHTYPE" depart="0.00" route="route_0"/>
    <vehicle id="vehicle_11" type="DEFAULT_VEHTYPE" depart="0.00" route="route_0"/>
    <vehicle id="vehicle_12" type="vType_0" depart="0.00" route="bus_route_0"/>
    <vehicle id="vehicle_13" type="DEFAULT_VEHTYPE" depart="0.00" route="route_0"/>
    <vehicle id="vehicle_14" type="DEFAULT_VEHTYPE" depart="0.00" route="route_0"/>
    <vehicle id="vehicle_15" type="DEFAULT_VEHTYPE" depart="0.00" route="route_0"/>
    <vehicle id="vehicle_16" type="DEFAULT_VEHTYPE" depart="0.00" route="route_0"/>
    <vehicle id="vehicle_17" type="DEFAULT_VEHTYPE" depart="0.00" route="route_0"/>
    <vehicle id="vehicle_18" type="DEFAULT_VEHTYPE" depart="0.00" route="route_0"/>
    <vehicle id="vehicle_19" type="DEFAULT_VEHTYPE" depart="0.00" route="route_0"/>
    <vehicle id="vehicle_2" type="DEFAULT_VEHTYPE" depart="0.00" color="red" route="route_0"/>
    <vehicle id="vehicle_20" type="DEFAULT_BIKETYPE" depart="0.00" route="route_0" departPosLat="right" departSpeed="random"/>
    <vehicle id="vehicle_21" type="DEFAULT_BIKETYPE" depart="0.00" route="route_0" departPosLat="right" departSpeed="random"/>
    <vehicle id="vehicle_22" type="DEFAULT_VEHTYPE" depart="0.00" route="route_0"/>
    <vehicle id="vehicle_23" type="DEFAULT_VEHTYPE" depart="0.00" route="route_0"/>
    <vehicle id="vehicle_24" type="DEFAULT_BIKETYPE" depart="0.00" route="route_0" departPosLat="right" departSpeed="random"/>
    <vehicle id="vehicle_25" type="DEFAULT_BIKETYPE" depart="0.00" route="route_0" departPosLat="right" departSpeed="random"/>
    <vehicle id="vehicle_26" type="vType_0" depart="0.00" route="bus_route_0"/>
    <vehicle id="vehicle_27" type="DEFAULT_VEHTYPE" depart="0.00" route="route_0"/>
    <vehicle id="vehicle_28" type="DEFAULT_VEHTYPE" depart="0.00" route="route_0"/>
    <vehicle id="vehicle_29" type="DEFAULT_BIKETYPE" depart="0.00" route="route_0" departPosLat="right" departSpeed="random"/>
    <vehicle id="vehicle_3" type="DEFAULT_VEHTYPE" depart="0.00" color="red" route="route_0"/>
    <vehicle id="vehicle_30" type="DEFAULT_BIKETYPE" depart="0.00" route="route_0" departPosLat="right" departSpeed="random"/>
    <vehicle id="vehicle_31" type="DEFAULT_BIKETYPE" depart="0.00" route="route_0" departPosLat="right" departSpeed="random"/>
    <vehicle id="vehicle_32" type="DEFAULT_BIKETYPE" depart="0.00" route="route_0" departPosLat="right" departSpeed="random"/>
    <vehicle id="vehicle_33" type="DEFAULT_BIKETYPE" depart="0.00" route="route_0" departPosLat="right" departSpeed="random"/>
    <vehicle id="vehicle_34" type="DEFAULT_BIKETYPE" depart="0.00" route="route_0" departPosLat="right" departSpeed="random"/>
    <vehicle id="vehicle_4" type="DEFAULT_VEHTYPE" depart="0.00" color="red" route="route_0"/>
    <vehicle id="vehicle_5" type="DEFAULT_VEHTYPE" depart="0.00" color="red" route="route_0"/>
    <vehicle id="vehicle_6" type="DEFAULT_VEHTYPE"  depart="0.00" color="red" route="route_0"/>
    <vehicle id="vehicle_7" type="DEFAULT_BIKETYPE" depart="0.00" route="route_0" departPosLat="right" departSpeed="random"/>
    <vehicle id="vehicle_8" type="DEFAULT_BIKETYPE" depart="29.00" route="route_0" departPosLat="right" departSpeed="random"/>
    <vehicle id="vehicle_9" type="DEFAULT_BIKETYPE" depart="30.00" route="route_0" departPosLat="right" departSpeed="random"/>
</routes>
