<?xml version="1.0" encoding="UTF-8"?>

<!-- generated on 02/06/20 14:39:41 by Eclipse SUMO netedit Version 1.3.1
<configuration xmlns:xsi="http://www.w3.org/2001/XMLSchema-instance" xsi:noNamespaceSchemaLocation="http://sumo.dlr.de/xsd/netconvertConfiguration.xsd">

    <input>
        <sumo-net-file value="smalldock.net.xml"/>
    </input>

    <output>
        <output-file value="smalldock.net.xml"/>
    </output>

    <processing>
        <geometry.max-grade.fix value="false"/>
        <offset.disable-normalization value="true"/>
        <opposites.guess.fix-lengths value="true"/>
        <lefthand value="false"/>
    </processing>

    <junctions>
        <no-turnarounds value="true"/>
        <junctions.corner-detail value="5"/>
        <junctions.limit-turn-speed value="5.5"/>
        <rectangular-lane-cut value="false"/>
    </junctions>

    <pedestrian>
        <walkingareas value="false"/>
    </pedestrian>

</configuration>
-->

<net version="1.3" junctionCornerDetail="5" limitTurnSpeed="5.50" xmlns:xsi="http://www.w3.org/2001/XMLSchema-instance" xsi:noNamespaceSchemaLocation="http://sumo.dlr.de/xsd/net_file.xsd">

    <location netOffset="-683631.24,-5914091.96" convBoundary="0.00,0.00,942.08,728.73" origBoundary="-6.243378,53.341650,-6.221759,53.354867" projParameter="+proj=utm +zone=29 +ellps=WGS84 +datum=WGS84 +units=m +no_defs"/>

    <type id="highway.bridleway" priority="1" numLanes="1" speed="2.78" allow="pedestrian" oneway="1" width="2.00"/>
    <type id="highway.bus_guideway" priority="1" numLanes="1" speed="27.78" allow="bus" oneway="1"/>
    <type id="highway.cycleway" priority="1" numLanes="1" speed="8.33" allow="bicycle" oneway="0" width="1.00"/>
    <type id="highway.footway" priority="1" numLanes="1" speed="2.78" allow="pedestrian" oneway="1" width="2.00"/>
    <type id="highway.ford" priority="1" numLanes="1" speed="2.78" allow="army" oneway="0"/>
    <type id="highway.living_street" priority="2" numLanes="1" speed="2.78" disallow="tram rail_urban rail rail_electric rail_fast ship" oneway="0"/>
    <type id="highway.motorway" priority="14" numLanes="2" speed="39.44" allow="private emergency authority army vip passenger hov taxi bus coach delivery truck trailer motorcycle evehicle custom1 custom2" oneway="1"/>
    <type id="highway.motorway_link" priority="9" numLanes="1" speed="22.22" allow="private emergency authority army vip passenger hov taxi bus coach delivery truck trailer motorcycle evehicle custom1 custom2" oneway="1"/>
    <type id="highway.path" priority="1" numLanes="1" speed="2.78" allow="pedestrian bicycle" oneway="1" width="2.00"/>
    <type id="highway.pedestrian" priority="1" numLanes="1" speed="2.78" allow="pedestrian" oneway="1" width="2.00"/>
    <type id="highway.primary" priority="12" numLanes="2" speed="27.78" disallow="tram rail_urban rail rail_electric rail_fast ship" oneway="0"/>
    <type id="highway.primary_link" priority="7" numLanes="1" speed="22.22" disallow="tram rail_urban rail rail_electric rail_fast ship" oneway="0"/>
    <type id="highway.raceway" priority="15" numLanes="2" speed="83.33" allow="vip" oneway="0"/>
    <type id="highway.residential" priority="3" numLanes="1" speed="13.89" disallow="tram rail_urban rail rail_electric rail_fast ship" oneway="0"/>
    <type id="highway.secondary" priority="11" numLanes="2" speed="27.78" disallow="tram rail_urban rail rail_electric rail_fast ship" oneway="0"/>
    <type id="highway.secondary_link" priority="6" numLanes="1" speed="22.22" disallow="tram rail_urban rail rail_electric rail_fast ship" oneway="0"/>
    <type id="highway.service" priority="1" numLanes="1" speed="5.56" allow="pedestrian delivery bicycle" oneway="0"/>
    <type id="highway.stairs" priority="1" numLanes="1" speed="1.39" allow="pedestrian" oneway="1" width="2.00"/>
    <type id="highway.step" priority="1" numLanes="1" speed="1.39" allow="pedestrian" oneway="1" width="2.00"/>
    <type id="highway.steps" priority="1" numLanes="1" speed="1.39" allow="pedestrian" oneway="1" width="2.00"/>
    <type id="highway.tertiary" priority="10" numLanes="1" speed="22.22" disallow="tram rail_urban rail rail_electric rail_fast ship" oneway="0"/>
    <type id="highway.tertiary_link" priority="5" numLanes="1" speed="22.22" disallow="tram rail_urban rail rail_electric rail_fast ship" oneway="0"/>
    <type id="highway.track" priority="1" numLanes="1" speed="5.56" disallow="tram rail_urban rail rail_electric rail_fast ship" oneway="0"/>
    <type id="highway.trunk" priority="13" numLanes="2" speed="27.78" disallow="pedestrian bicycle tram rail_urban rail rail_electric rail_fast ship" oneway="0"/>
    <type id="highway.trunk_link" priority="8" numLanes="1" speed="22.22" disallow="pedestrian bicycle tram rail_urban rail rail_electric rail_fast ship" oneway="0"/>
    <type id="highway.unclassified" priority="4" numLanes="1" speed="13.89" disallow="tram rail_urban rail rail_electric rail_fast ship" oneway="0"/>
    <type id="highway.unsurfaced" priority="1" numLanes="1" speed="8.33" disallow="tram rail_urban rail rail_electric rail_fast ship" oneway="0"/>
    <type id="railway.highspeed" priority="21" numLanes="1" speed="69.44" allow="rail_fast" oneway="1"/>
    <type id="railway.light_rail" priority="19" numLanes="1" speed="27.78" allow="rail_urban" oneway="1"/>
    <type id="railway.preserved" priority="16" numLanes="1" speed="27.78" allow="rail" oneway="1"/>
    <type id="railway.rail" priority="20" numLanes="1" speed="44.44" allow="rail" oneway="1"/>
    <type id="railway.subway" priority="18" numLanes="1" speed="27.78" allow="rail_urban" oneway="1"/>
    <type id="railway.tram" priority="17" numLanes="1" speed="13.89" allow="tram" oneway="1"/>

    <edge id=":1262187729_0" function="internal">
        <lane id=":1262187729_0_0" index="0" disallow="tram rail_urban rail rail_electric rail_fast ship" speed="8.33" length="4.81" shape="598.78,188.99 593.99,189.34"/>
    </edge>
    <edge id=":1262187729_1" function="internal">
        <lane id=":1262187729_1_0" index="0" disallow="tram rail_urban rail rail_electric rail_fast ship" speed="3.65" length="4.67" shape="598.78,188.99 597.54,188.25 597.10,187.48 597.45,186.66 598.61,185.79"/>
    </edge>
    <edge id=":1262187729_2" function="internal">
        <lane id=":1262187729_2_0" index="0" disallow="tram rail_urban rail rail_electric rail_fast ship" speed="8.33" length="4.94" shape="593.69,186.15 598.61,185.79"/>
    </edge>
    <edge id=":1262187729_3" function="internal">
        <lane id=":1262187729_3_0" index="0" disallow="tram rail_urban rail rail_electric rail_fast ship" speed="3.65" length="4.67" shape="593.69,186.15 594.96,186.84 595.43,187.60 595.11,188.43 593.99,189.34"/>
    </edge>
    <edge id=":1262187740_0" function="internal">
        <lane id=":1262187740_0_0" index="0" disallow="tram rail_urban rail rail_electric rail_fast ship" speed="3.79" length="3.22" shape="698.90,183.15 698.74,182.27 698.34,181.67 697.70,181.35 696.81,181.30"/>
    </edge>
    <edge id=":1262187740_1" function="internal">
        <lane id=":1262187740_1_0" index="0" allow="bicycle" speed="5.65" length="6.83" width="1.00" shape="696.52,178.12 697.93,178.32 698.96,179.22 699.62,180.82 699.90,183.11"/>
    </edge>
    <edge id=":1262187740_2" function="internal">
        <lane id=":1262187740_2_0" index="0" disallow="tram rail_urban rail rail_electric rail_fast ship" speed="3.65" length="4.67" shape="696.42,177.02 697.68,177.71 698.16,178.47 697.83,179.30 696.71,180.21"/>
    </edge>
    <edge id=":1262187748_0" function="internal">
        <lane id=":1262187748_0_0" index="0" disallow="tram rail_urban rail rail_electric rail_fast ship" speed="8.33" length="5.10" shape="540.56,105.97 540.17,100.88"/>
    </edge>
    <edge id=":1262187748_1" function="internal">
        <lane id=":1262187748_1_0" index="0" disallow="tram rail_urban rail rail_electric rail_fast ship" speed="3.65" length="2.34" shape="540.56,105.97 541.26,104.71 542.02,104.24"/>
    </edge>
    <edge id=":1262187748_4" function="internal">
        <lane id=":1262187748_4_0" index="0" disallow="tram rail_urban rail rail_electric rail_fast ship" speed="3.65" length="2.34" shape="542.02,104.24 542.85,104.57 543.75,105.69"/>
    </edge>
    <edge id=":1262187748_2" function="internal">
        <lane id=":1262187748_2_0" index="0" disallow="tram rail_urban rail rail_electric rail_fast ship" speed="8.33" length="5.05" shape="543.36,100.66 543.75,105.69"/>
    </edge>
    <edge id=":1262187748_3" function="internal">
        <lane id=":1262187748_3_0" index="0" disallow="tram rail_urban rail rail_electric rail_fast ship" speed="3.65" length="2.34" shape="543.36,100.66 542.65,101.91 541.88,102.37"/>
    </edge>
    <edge id=":1262187748_5" function="internal">
        <lane id=":1262187748_5_0" index="0" disallow="tram rail_urban rail rail_electric rail_fast ship" speed="3.65" length="2.34" shape="541.88,102.37 541.05,102.02 540.17,100.88"/>
    </edge>
    <edge id=":1262222399_0" function="internal">
        <lane id=":1262222399_0_0" index="0" disallow="tram rail_urban rail rail_electric rail_fast ship" speed="6.31" length="9.08" shape="354.65,119.52 354.12,117.01 352.95,115.35 351.11,114.55 348.63,114.61"/>
    </edge>
    <edge id=":1262222399_1" function="internal">
        <lane id=":1262222399_1_0" index="0" disallow="tram rail_urban rail rail_electric rail_fast ship" speed="8.33" length="14.75" shape="354.65,119.52 353.72,104.79"/>
    </edge>
    <edge id=":1262222399_2" function="internal">
        <lane id=":1262222399_2_0" index="0" disallow="tram rail_urban rail rail_electric rail_fast ship" speed="8.12" length="14.47" shape="354.65,119.52 354.94,115.56 356.42,112.63 359.08,110.72 362.92,109.85"/>
    </edge>
    <edge id=":1262222399_3" function="internal">
        <lane id=":1262222399_3_0" index="0" disallow="tram rail_urban rail rail_electric rail_fast ship" speed="3.65" length="4.67" shape="354.65,119.52 355.37,118.26 356.14,117.81 356.96,118.16 357.84,119.30"/>
    </edge>
    <edge id=":1262222399_4" function="internal">
        <lane id=":1262222399_4_0" index="0" disallow="tram rail_urban rail rail_electric rail_fast ship" speed="6.65" length="9.36" shape="363.18,113.04 360.70,113.61 358.98,114.84 358.03,116.74 357.84,119.30"/>
    </edge>
    <edge id=":1262222399_5" function="internal">
        <lane id=":1262222399_5_0" index="0" disallow="tram rail_urban rail rail_electric rail_fast ship" speed="8.33" length="14.65" shape="363.18,113.04 359.50,113.34 355.89,113.66 352.28,114.06 348.63,114.61"/>
    </edge>
    <edge id=":1262222399_6" function="internal">
        <lane id=":1262222399_6_0" index="0" disallow="tram rail_urban rail rail_electric rail_fast ship" speed="8.03" length="14.33" shape="363.18,113.04 359.30,112.79 356.43,111.33 354.57,108.67 353.72,104.79"/>
    </edge>
    <edge id=":1262222399_7" function="internal">
        <lane id=":1262222399_7_0" index="0" disallow="tram rail_urban rail rail_electric rail_fast ship" speed="3.65" length="4.67" shape="363.18,113.04 361.92,112.34 361.46,111.57 361.79,110.74 362.92,109.85"/>
    </edge>
    <edge id=":1262222399_8" function="internal">
        <lane id=":1262222399_8_0" index="0" disallow="tram rail_urban rail rail_electric rail_fast ship" speed="6.51" length="9.06" shape="356.91,104.66 357.46,107.10 358.64,108.78 360.46,109.69 362.92,109.85"/>
    </edge>
    <edge id=":1262222399_9" function="internal">
        <lane id=":1262222399_9_0" index="0" disallow="tram rail_urban rail rail_electric rail_fast ship" speed="8.33" length="14.67" shape="356.91,104.66 357.84,119.30"/>
    </edge>
    <edge id=":1262222399_10" function="internal">
        <lane id=":1262222399_10_0" index="0" disallow="tram rail_urban rail rail_electric rail_fast ship" speed="8.33" length="14.48" shape="356.91,104.66 356.64,108.44 355.17,111.35 352.50,113.41 348.63,114.61"/>
    </edge>
    <edge id=":1262222399_11" function="internal">
        <lane id=":1262222399_11_0" index="0" disallow="tram rail_urban rail rail_electric rail_fast ship" speed="3.65" length="4.68" shape="356.91,104.66 356.17,105.89 355.38,106.33 354.57,105.96 353.72,104.79"/>
    </edge>
    <edge id=":1262222399_12" function="internal">
        <lane id=":1262222399_12_0" index="0" disallow="tram rail_urban rail rail_electric rail_fast ship" speed="6.92" length="9.62" shape="348.23,111.43 350.80,110.63 352.57,109.26 353.54,107.32 353.72,104.79"/>
    </edge>
    <edge id=":1262222399_13" function="internal">
        <lane id=":1262222399_13_0" index="0" disallow="tram rail_urban rail rail_electric rail_fast ship" speed="8.33" length="14.78" shape="348.23,111.43 351.91,110.88 355.56,110.47 359.22,110.15 362.92,109.85"/>
    </edge>
    <edge id=":1262222399_14" function="internal">
        <lane id=":1262222399_14_0" index="0" disallow="tram rail_urban rail rail_electric rail_fast ship" speed="7.81" length="14.52" shape="348.23,111.43 352.20,111.34 355.12,112.63 357.00,115.28 357.84,119.30"/>
    </edge>
    <edge id=":1262222399_15" function="internal">
        <lane id=":1262222399_15_0" index="0" disallow="tram rail_urban rail rail_electric rail_fast ship" speed="3.65" length="4.68" shape="348.23,111.43 349.53,112.07 350.02,112.82 349.72,113.66 348.63,114.61"/>
    </edge>
    <edge id=":1262222402_0" function="internal">
        <lane id=":1262222402_0_0" index="0" disallow="tram rail_urban rail rail_electric rail_fast ship" speed="8.33" length="14.36" shape="211.70,131.44 210.44,117.14"/>
    </edge>
    <edge id=":1262222402_1" function="internal">
        <lane id=":1262222402_1_0" index="0" disallow="tram rail_urban rail rail_electric rail_fast ship" speed="7.97" length="14.27" shape="211.70,131.44 211.93,127.53 213.36,124.65 216.00,122.81 219.84,122.01"/>
    </edge>
    <edge id=":1262222402_2" function="internal">
        <lane id=":1262222402_2_0" index="0" disallow="tram rail_urban rail rail_electric rail_fast ship" speed="3.65" length="4.67" shape="211.70,131.44 212.40,130.18 213.16,129.72 213.99,130.05 214.89,131.18"/>
    </edge>
    <edge id=":1262222402_3" function="internal">
        <lane id=":1262222402_3_0" index="0" disallow="tram rail_urban rail rail_electric rail_fast ship" speed="6.46" length="9.03" shape="220.04,125.21 217.61,125.71 215.94,126.88 215.03,128.70 214.89,131.18"/>
    </edge>
    <edge id=":1262222402_4" function="internal">
        <lane id=":1262222402_4_0" index="0" disallow="tram rail_urban rail rail_electric rail_fast ship" speed="8.09" length="14.21" shape="220.04,125.21 216.14,124.91 213.24,123.47 211.34,120.88 210.44,117.14"/>
    </edge>
    <edge id=":1262222402_5" function="internal">
        <lane id=":1262222402_5_0" index="0" disallow="tram rail_urban rail rail_electric rail_fast ship" speed="3.65" length="4.67" shape="220.04,125.21 218.79,124.49 218.34,123.71 218.69,122.89 219.84,122.01"/>
    </edge>
    <edge id=":1262222402_6" function="internal">
        <lane id=":1262222402_6_0" index="0" disallow="tram rail_urban rail rail_electric rail_fast ship" speed="6.61" length="9.16" shape="213.63,116.84 214.21,119.24 215.44,120.90 217.31,121.83 219.84,122.01"/>
    </edge>
    <edge id=":1262222402_7" function="internal">
        <lane id=":1262222402_7_0" index="0" disallow="tram rail_urban rail rail_electric rail_fast ship" speed="8.33" length="14.39" shape="213.63,116.84 214.89,131.18"/>
    </edge>
    <edge id=":1262222402_8" function="internal">
        <lane id=":1262222402_8_0" index="0" disallow="tram rail_urban rail rail_electric rail_fast ship" speed="3.65" length="4.67" shape="213.63,116.84 212.94,118.11 212.18,118.59 211.35,118.26 210.44,117.14"/>
    </edge>
    <edge id=":1267347022_0" function="internal">
        <lane id=":1267347022_0_0" index="0" allow="pedestrian delivery bicycle" speed="7.33" length="8.47" shape="118.74,163.32 117.85,165.36 116.53,166.87 114.78,167.85 112.60,168.31"/>
    </edge>
    <edge id=":1267347022_1" function="internal">
        <lane id=":1267347022_1_0" index="0" allow="pedestrian delivery bicycle" speed="3.65" length="4.67" shape="118.74,163.32 117.63,164.24 116.75,164.40 116.10,163.79 115.67,162.42"/>
    </edge>
    <edge id=":1267347022_2" function="internal">
        <lane id=":1267347022_2_0" index="0" allow="pedestrian delivery bicycle" speed="5.58" length="4.59" shape="112.34,165.12 113.52,164.87 114.47,164.34 115.19,163.52 115.67,162.42"/>
    </edge>
    <edge id=":1267347022_3" function="internal">
        <lane id=":1267347022_3_0" index="0" allow="pedestrian delivery bicycle" speed="3.65" length="4.67" shape="112.34,165.12 113.60,165.82 114.06,166.59 113.73,167.42 112.60,168.31"/>
    </edge>
    <edge id=":1283775807_0" function="internal">
        <lane id=":1283775807_0_0" index="0" allow="pedestrian delivery bicycle" speed="3.65" length="4.67" shape="77.78,171.07 76.52,170.37 76.06,169.61 76.39,168.78 77.52,167.89"/>
    </edge>
    <edge id=":1346901_0" function="internal">
        <lane id=":1346901_0_0" index="0" disallow="tram rail_urban rail rail_electric rail_fast ship" speed="11.11" length="26.27" shape="69.44,234.82 43.43,238.48"/>
    </edge>
    <edge id=":1346901_1" function="internal">
        <lane id=":1346901_1_0" index="0" disallow="tram rail_urban rail rail_electric rail_fast ship" speed="9.30" length="19.68" shape="69.44,234.82 64.64,234.27 61.12,231.94 58.86,227.85 57.86,221.98"/>
    </edge>
    <edge id=":1346901_2" function="internal">
        <lane id=":1346901_2_0" index="0" disallow="tram rail_urban rail rail_electric rail_fast ship" speed="3.65" length="4.67" shape="69.44,234.82 68.19,234.09 67.74,233.32 68.09,232.50 69.24,231.62"/>
    </edge>
    <edge id=":1346901_3" function="internal">
        <lane id=":1346901_3_0" index="0" disallow="tram rail_urban rail rail_electric rail_fast ship" speed="11.67" length="26.62" shape="64.20,225.48 62.29,230.74 58.18,234.65 51.90,237.24 43.43,238.48"/>
    </edge>
    <edge id=":1346901_4" function="internal">
        <lane id=":1346901_4_0" index="0" disallow="tram rail_urban rail rail_electric rail_fast ship" speed="10.34" length="24.27" shape="61.16,223.80 60.21,228.41 56.80,231.87 50.94,234.17 42.61,235.33"/>
    </edge>
    <edge id=":1346901_5" function="internal">
        <lane id=":1346901_5_0" index="0" disallow="tram rail_urban rail rail_electric rail_fast ship" speed="3.86" length="5.51" shape="61.16,223.80 59.65,224.58 58.60,224.54 58.00,223.67 57.86,221.98"/>
    </edge>
    <edge id=":1346901_6" function="internal">
        <lane id=":1346901_6_0" index="0" disallow="tram rail_urban rail rail_electric rail_fast ship" speed="11.64" length="24.88" shape="46.13,242.11 50.20,239.62 52.96,235.13 54.41,228.64 54.56,220.15"/>
        <lane id=":1346901_6_1" index="1" disallow="tram rail_urban rail rail_electric rail_fast ship" speed="13.58" length="24.88" shape="49.46,243.97 53.44,240.17 56.17,235.24 57.65,229.17 57.86,221.98"/>
    </edge>
    <edge id=":1346901_8" function="internal">
        <lane id=":1346901_8_0" index="0" disallow="tram rail_urban rail rail_electric rail_fast ship" speed="11.11" length="23.50" shape="49.46,243.97 55.30,239.66 60.55,235.76 65.20,232.88 69.24,231.62"/>
    </edge>
    <edge id=":1396869619_0" function="internal">
        <lane id=":1396869619_0_0" index="0" disallow="tram rail_urban rail rail_electric rail_fast ship" speed="3.65" length="4.67" shape="226.10,536.35 225.38,537.60 224.61,538.06 223.78,537.71 222.90,536.57"/>
    </edge>
    <edge id=":1426100635_0" function="internal">
        <lane id=":1426100635_0_0" index="0" disallow="tram rail_urban rail rail_electric rail_fast ship" speed="6.63" length="9.29" shape="213.37,150.64 212.78,148.21 211.53,146.54 209.62,145.63 207.04,145.47"/>
    </edge>
    <edge id=":1426100635_1" function="internal">
        <lane id=":1426100635_1_0" index="0" disallow="tram rail_urban rail rail_electric rail_fast ship" speed="8.33" length="14.39" shape="213.37,150.64 212.11,136.31"/>
    </edge>
    <edge id=":1426100635_2" function="internal">
        <lane id=":1426100635_2_0" index="0" disallow="tram rail_urban rail rail_electric rail_fast ship" speed="3.65" length="4.67" shape="213.37,150.64 214.06,149.37 214.82,148.90 215.65,149.22 216.56,150.34"/>
    </edge>
    <edge id=":1426100635_3" function="internal">
        <lane id=":1426100635_3_0" index="0" disallow="tram rail_urban rail rail_electric rail_fast ship" speed="8.33" length="14.36" shape="215.29,136.04 216.56,150.34"/>
    </edge>
    <edge id=":1426100635_4" function="internal">
        <lane id=":1426100635_4_0" index="0" disallow="tram rail_urban rail rail_electric rail_fast ship" speed="8.02" length="14.31" shape="215.29,136.04 215.05,139.91 213.60,142.77 210.93,144.62 207.04,145.47"/>
    </edge>
    <edge id=":1426100635_5" function="internal">
        <lane id=":1426100635_5_0" index="0" disallow="tram rail_urban rail rail_electric rail_fast ship" speed="3.65" length="4.67" shape="215.29,136.04 214.60,137.30 213.83,137.77 213.00,137.44 212.11,136.31"/>
    </edge>
    <edge id=":1426100635_6" function="internal">
        <lane id=":1426100635_6_0" index="0" disallow="tram rail_urban rail rail_electric rail_fast ship" speed="6.49" length="9.03" shape="206.92,142.27 209.36,141.74 211.04,140.56 211.95,138.75 212.11,136.31"/>
    </edge>
    <edge id=":1426100635_7" function="internal">
        <lane id=":1426100635_7_0" index="0" disallow="tram rail_urban rail rail_electric rail_fast ship" speed="8.07" length="14.29" shape="206.92,142.27 210.83,142.52 213.74,143.95 215.65,146.56 216.56,150.34"/>
    </edge>
    <edge id=":1426100635_8" function="internal">
        <lane id=":1426100635_8_0" index="0" disallow="tram rail_urban rail rail_electric rail_fast ship" speed="3.65" length="4.68" shape="206.92,142.27 208.15,143.03 208.58,143.81 208.21,144.62 207.04,145.47"/>
    </edge>
    <edge id=":1426100640_0" function="internal">
        <lane id=":1426100640_0_0" index="0" disallow="tram rail_urban rail rail_electric rail_fast ship" speed="8.33" length="6.30" shape="161.95,148.98 155.66,149.49"/>
    </edge>
    <edge id=":1426100640_1" function="internal">
        <lane id=":1426100640_1_0" index="0" disallow="tram rail_urban rail rail_electric rail_fast ship" speed="3.65" length="4.67" shape="161.95,148.98 160.69,148.27 160.23,147.51 160.56,146.68 161.70,145.79"/>
    </edge>
    <edge id=":1426100640_2" function="internal">
        <lane id=":1426100640_2_0" index="0" disallow="tram rail_urban rail rail_electric rail_fast ship" speed="8.33" length="6.37" shape="155.35,146.31 161.70,145.79"/>
    </edge>
    <edge id=":1426100640_3" function="internal">
        <lane id=":1426100640_3_0" index="0" disallow="tram rail_urban rail rail_electric rail_fast ship" speed="3.65" length="4.67" shape="155.35,146.31 156.62,146.99 157.10,147.75 156.78,148.58 155.66,149.49"/>
    </edge>
    <edge id=":1426100642_0" function="internal">
        <lane id=":1426100642_0_0" index="0" disallow="tram rail_urban rail rail_electric rail_fast ship" speed="8.33" length="13.51" shape="115.51,157.97 114.02,144.54"/>
    </edge>
    <edge id=":1426100642_1" function="internal">
        <lane id=":1426100642_1_0" index="0" disallow="tram rail_urban rail rail_electric rail_fast ship" speed="7.63" length="13.42" shape="115.51,157.97 115.54,154.54 116.86,151.97 119.46,150.25 123.35,149.39"/>
    </edge>
    <edge id=":1426100642_2" function="internal">
        <lane id=":1426100642_2_0" index="0" allow="pedestrian delivery bicycle" speed="3.65" length="4.67" shape="115.51,157.97 116.11,156.66 116.84,156.14 117.69,156.41 118.67,157.46"/>
    </edge>
    <edge id=":1426100642_3" function="internal">
        <lane id=":1426100642_3_0" index="0" allow="pedestrian delivery bicycle" speed="6.05" length="8.03" shape="123.65,152.57 121.21,153.08 119.57,154.07 118.72,155.53 118.67,157.46"/>
    </edge>
    <edge id=":1426100642_4" function="internal">
        <lane id=":1426100642_4_0" index="0" disallow="tram rail_urban rail rail_electric rail_fast ship" speed="7.98" length="14.39" shape="123.65,152.57 119.68,152.40 116.74,151.00 114.86,148.38 114.02,144.54"/>
    </edge>
    <edge id=":1426100642_5" function="internal">
        <lane id=":1426100642_5_0" index="0" disallow="tram rail_urban rail rail_electric rail_fast ship" speed="3.65" length="2.55" shape="123.65,152.57 122.38,151.89 121.91,151.13 121.99,150.93"/>
    </edge>
    <edge id=":1426100642_9" function="internal">
        <lane id=":1426100642_9_0" index="0" disallow="tram rail_urban rail rail_electric rail_fast ship" speed="3.65" length="2.12" shape="121.99,150.93 122.23,150.30 123.35,149.39"/>
    </edge>
    <edge id=":1426100642_6" function="internal">
        <lane id=":1426100642_6_0" index="0" disallow="tram rail_urban rail rail_electric rail_fast ship" speed="6.49" length="9.13" shape="117.21,144.31 117.74,146.74 118.94,148.40 120.81,149.28 123.35,149.39"/>
    </edge>
    <edge id=":1426100642_7" function="internal">
        <lane id=":1426100642_7_0" index="0" allow="pedestrian delivery bicycle" speed="8.33" length="13.23" shape="117.21,144.31 118.67,157.46"/>
    </edge>
    <edge id=":1426100642_8" function="internal">
        <lane id=":1426100642_8_0" index="0" disallow="tram rail_urban rail rail_electric rail_fast ship" speed="3.65" length="2.08" shape="117.21,144.31 116.50,145.57 115.95,145.89"/>
    </edge>
    <edge id=":1426100642_10" function="internal">
        <lane id=":1426100642_10_0" index="0" disallow="tram rail_urban rail rail_electric rail_fast ship" speed="3.65" length="2.60" shape="115.95,145.89 115.73,146.02 114.90,145.68 114.02,144.54"/>
    </edge>
    <edge id=":1426100647_0" function="internal">
        <lane id=":1426100647_0_0" index="0" allow="bicycle" speed="8.33" length="4.01" width="1.00" shape="472.89,206.51 468.90,206.86"/>
    </edge>
    <edge id=":1426100647_1" function="internal">
        <lane id=":1426100647_1_0" index="0" allow="bicycle" speed="3.84" length="3.12" width="1.00" shape="472.89,206.51 472.02,206.47 471.37,206.17 470.94,205.62 470.72,204.81"/>
    </edge>
    <edge id=":1426100647_2" function="internal">
        <lane id=":1426100647_2_0" index="0" allow="bicycle" speed="2.04" length="1.46" width="1.00" shape="472.89,206.51 472.50,206.29 472.35,206.06 472.45,205.79 472.80,205.51"/>
    </edge>
    <edge id=":1426100647_3" function="internal">
        <lane id=":1426100647_3_0" index="0" allow="bicycle" speed="3.40" length="2.48" width="1.00" shape="468.81,205.86 469.55,205.80 470.18,205.68 470.61,205.39 470.72,204.81"/>
    </edge>
    <edge id=":1426100647_4" function="internal">
        <lane id=":1426100647_4_0" index="0" allow="bicycle" speed="8.33" length="4.00" width="1.00" shape="468.81,205.86 472.80,205.51"/>
    </edge>
    <edge id=":1426100647_5" function="internal">
        <lane id=":1426100647_5_0" index="0" allow="bicycle" speed="2.04" length="1.46" width="1.00" shape="468.81,205.86 469.21,206.08 469.35,206.32 469.25,206.58 468.90,206.86"/>
    </edge>
    <edge id=":1426100651_0" function="internal">
        <lane id=":1426100651_0_0" index="0" allow="bicycle" speed="8.33" length="4.02" width="1.00" shape="364.75,215.76 360.74,216.07"/>
    </edge>
    <edge id=":1426100651_1" function="internal">
        <lane id=":1426100651_1_0" index="0" allow="bicycle" speed="3.70" length="2.96" width="1.00" shape="364.75,215.76 363.86,215.73 363.21,215.47 362.80,214.99 362.62,214.28"/>
    </edge>
    <edge id=":1426100651_2" function="internal">
        <lane id=":1426100651_2_0" index="0" allow="bicycle" speed="2.04" length="1.46" width="1.00" shape="364.75,215.76 364.36,215.54 364.21,215.30 364.31,215.04 364.67,214.76"/>
    </edge>
    <edge id=":1426100651_3" function="internal">
        <lane id=":1426100651_3_0" index="0" allow="bicycle" speed="3.40" length="2.41" width="1.00" shape="360.67,215.07 361.41,215.06 362.05,215.02 362.49,214.81 362.62,214.28"/>
    </edge>
    <edge id=":1426100651_4" function="internal">
        <lane id=":1426100651_4_0" index="0" allow="bicycle" speed="8.33" length="4.01" width="1.00" shape="360.67,215.07 364.67,214.76"/>
    </edge>
    <edge id=":1426100651_5" function="internal">
        <lane id=":1426100651_5_0" index="0" allow="bicycle" speed="2.04" length="1.46" width="1.00" shape="360.67,215.07 361.06,215.30 361.21,215.54 361.10,215.79 360.74,216.07"/>
    </edge>
    <edge id=":1426100664_0" function="internal">
        <lane id=":1426100664_0_0" index="0" disallow="tram rail_urban rail rail_electric rail_fast ship" speed="5.67" length="6.93" shape="294.99,219.59 294.46,218.54 293.26,217.87 291.41,217.58 288.90,217.67"/>
    </edge>
    <edge id=":1426100664_1" function="internal">
        <lane id=":1426100664_1_0" index="0" disallow="tram rail_urban rail rail_electric rail_fast ship" speed="6.69" length="10.93" shape="294.99,219.59 294.79,216.14 295.47,213.60 297.05,211.97 299.53,211.25"/>
    </edge>
    <edge id=":1426100664_2" function="internal">
        <lane id=":1426100664_2_0" index="0" disallow="tram rail_urban rail rail_electric rail_fast ship" speed="8.33" length="11.17" shape="299.91,215.53 288.80,216.58"/>
    </edge>
    <edge id=":1426100664_3" function="internal">
        <lane id=":1426100664_3_0" index="0" disallow="tram rail_urban rail rail_electric rail_fast ship" speed="3.65" length="2.34" shape="299.91,215.53 298.65,214.85 298.18,214.08"/>
    </edge>
    <edge id=":1426100664_8" function="internal">
        <lane id=":1426100664_8_0" index="0" disallow="tram rail_urban rail rail_electric rail_fast ship" speed="3.65" length="2.34" shape="298.18,214.08 298.50,213.25 299.63,212.35"/>
    </edge>
    <edge id=":1426100664_4" function="internal">